#Put Keywords Here, check Charge and Multiplicity.

 test.xyz

0  1
C           0.03494        -0.70470        -0.01014
C           1.25885        -1.39009        -0.04231
C           2.46547        -0.69130        -0.02433
C           2.46243         0.69963         0.02127
C           1.25258         1.39303         0.04045
C           0.03181         0.70215         0.00928
C          -1.25606         1.48705         0.06104
C          -2.47726         0.66821        -0.35343
C          -2.47481        -0.68197         0.35140
C          -1.24930        -1.49569        -0.06081
H           1.27581        -2.47696        -0.08131
H           3.40720        -1.23294        -0.04542
H           3.40159         1.24561         0.04122
H           1.26463         2.47996         0.07947
H          -1.18380         2.36528        -0.59153
H          -1.39330         1.84767         1.08823
H          -2.47344         0.51518        -1.44018
H          -3.39118         1.22117        -0.10987
H          -3.38587        -1.23909         0.10643
H          -2.47349        -0.52892         1.43819
H          -1.38437        -1.85882        -1.08737
H          -1.17319        -2.37237         0.59348

