# nmr=giao gen nosymm mpwpw91

This is a comment line.

0 1
C                  0.68332303    -1.22904345     0.00963937
C                  1.39205803    -0.01814114    -0.00302343
C                  0.71567549     1.20131317    -0.00366498
C                 -0.67579713     1.22423869     0.00362952
C                 -1.39191771     0.02754346     0.00309399
C                 -0.72334171    -1.20591073    -0.00967446
C                 -1.53326450    -2.47890430     0.01979894
C                 -0.72625478    -3.71517709    -0.37260223
C                  0.60381949    -3.73793182     0.36912684
C                  1.45130613    -2.52782537    -0.01989869
H                  2.47971692    -0.02147309    -0.01208282
H                  1.27516942     2.13276808    -0.00935386
H                 -1.20449933     2.17342705     0.00902600
H                 -2.47909579     0.05988148     0.01218663
H                 -2.39169452    -2.39026266    -0.65666067
H                 -1.92452523    -2.60938856     1.03660266
H                 -0.54331914    -3.71421442    -1.45472604
H                 -1.30266827    -4.61861554    -0.14482497
H                  1.15037484    -4.65923303     0.13911673
H                  0.42095867    -3.73375501     1.45129274
H                  1.83997674    -2.66965051    -1.03614350
H                  2.31090828    -2.46809394     0.65831386
bq                 0.00000000     0.00000000     0.00000000
bq                 0.00000000     0.00000000     1.00000000
bq                 0.00000000     0.00000000    -1.00000000

C H 0
6-311+(2d,p)
****

